include ./../../../../general.ini

[Config WarmupMeasurement]
repeat = 30
sim-time-limit = 5d
SimNetwork.a.runway.throughputCheckInterval = 100min
SimNetwork.wg.interArrivalTime = exponential(100min)
SimNetwork.a.runway.landingTime = exponential(15min)
SimNetwork.a.runway.takeoffTime = exponential(5min)
SimNetwork.a.parkingLot.parkingDelay = exponential(30min)

[Config ParkingMeasurement]
repeat = 70
sim-time-limit = 12d
warmup-period = 1.74d
SimNetwork.a.runway.throughputCheckInterval = 100min
SimNetwork.wg.interArrivalTime = exponential(100min)
SimNetwork.a.runway.landingTime = exponential(15min)
SimNetwork.a.runway.takeoffTime = exponential(5min)
SimNetwork.a.parkingLot.parkingDelay = exponential(30min)
