include ./../../../general.ini

[Config WarmupMeasurement]
repeat = 30
sim-time-limit = 5d
SimNetwork.a.runway.throughputCheckInterval = 100min
SimNetwork.wg.interArrivalTime = exponential(100min)
SimNetwork.a.runway.landingTime = lognormal(5min, 0.25min)
SimNetwork.a.runway.takeoffTime = lognormal(5min, 0.25min)
SimNetwork.a.parkingLot.parkingDelay = lognormal(45min, 25min)

[Config QueueMeasurement]
repeat = 150
sim-time-limit = 12d
warmup-period = 1.4d
SimNetwork.a.runway.throughputCheckInterval = 100min
SimNetwork.wg.interArrivalTime = exponential(100min)
SimNetwork.a.runway.landingTime = lognormal(5min, 0.25min)
SimNetwork.a.runway.takeoffTime = lognormal(5min, 0.25min)
SimNetwork.a.parkingLot.parkingDelay = lognormal(45min, 25min)
