include ./../../../../general.ini

[Config WarmupMeasurement]
repeat = 30
sim-time-limit = 50d
SimNetwork.a.runway.throughputCheckInterval = 100min
SimNetwork.wg.interArrivalTime = exponential(100min)
SimNetwork.a.runway.landingTime = exponential(15min)
SimNetwork.a.runway.takeoffTime = exponential(5min)
SimNetwork.a.parkingLot.parkingDelay = exponential(60min)

[Config ParkingMeasurement]
repeat = 150
sim-time-limit = 50d
warmup-period = 2.32d
SimNetwork.a.runway.throughputCheckInterval = 100min
SimNetwork.wg.interArrivalTime = exponential(100min)
SimNetwork.a.runway.landingTime = exponential(15min)
SimNetwork.a.runway.takeoffTime = exponential(5min)
SimNetwork.a.parkingLot.parkingDelay = exponential(60min)
