include ./../../../general.ini

[Config WarmupMeasurement]
repeat = 30
sim-time-limit = 5d
SimNetwork.a.runway.throughputCheckInterval = 16.667min
SimNetwork.wg.interArrivalTime = 16.667min
SimNetwork.a.runway.landingTime = 5min
SimNetwork.a.runway.takeoffTime = 5min
SimNetwork.a.parkingLot.parkingDelay = 45min

[Config QueueMeasurement]
repeat = 150
sim-time-limit = 11d
warmup-period = 19h
SimNetwork.a.runway.throughputCheckInterval = 16.667min
SimNetwork.wg.interArrivalTime = 16.667min
SimNetwork.a.runway.landingTime = 5min
SimNetwork.a.runway.takeoffTime = 5min
SimNetwork.a.parkingLot.parkingDelay = 45min
