include ./../../../../general.ini

[Config WarmupMeasurement]
repeat = 30
sim-time-limit = 50d
SimNetwork.a.runway.throughputCheckInterval = 150min
SimNetwork.wg.interArrivalTime = exponential(150min)
SimNetwork.a.runway.landingTime = lognormal(15min, 2.25min)
SimNetwork.a.runway.takeoffTime = lognormal(15min, 2.25min)
SimNetwork.a.parkingLot.parkingDelay = lognormal(30min, 9min)

[Config ResponseMeasurement]
repeat = 150
sim-time-limit = 50d
warmup-period = 3.47d
SimNetwork.a.runway.throughputCheckInterval = 150min
SimNetwork.wg.interArrivalTime = exponential(150min)
SimNetwork.a.runway.landingTime = lognormal(15min, 2.25min)
SimNetwork.a.runway.takeoffTime = lognormal(15min, 2.25min)
SimNetwork.a.parkingLot.parkingDelay = lognormal(30min, 9min)
