include ./../../../general.ini

[Config WarmupMeasurement]
repeat = 30
sim-time-limit = 5d
SimNetwork.a.runway.throughputCheckInterval = 33.33min
SimNetwork.wg.interArrivalTime = exponential(33.33min)
SimNetwork.a.runway.landingTime = exponential(5min)
SimNetwork.a.runway.takeoffTime = exponential(5min)
SimNetwork.a.parkingLot.parkingDelay = exponential(45min)

[Config QueueMeasurement]
repeat = 70
sim-time-limit = 12d
warmup-period = 1.3d
SimNetwork.a.runway.throughputCheckInterval = 33.33min
SimNetwork.wg.interArrivalTime = exponential(33.33min)
SimNetwork.a.runway.landingTime = exponential(5min)
SimNetwork.a.runway.takeoffTime = exponential(5min)
SimNetwork.a.parkingLot.parkingDelay = exponential(45min)
