include ./../../../../general.ini

[Config WarmupMeasurement]
repeat = 30
sim-time-limit = 50d
SimNetwork.a.runway.throughputCheckInterval = 42.857min
SimNetwork.wg.interArrivalTime = exponential(42.857min)
SimNetwork.a.runway.landingTime = lognormal(15min, 2.25min)
SimNetwork.a.runway.takeoffTime = lognormal(15min, 2.25min)
SimNetwork.a.parkingLot.parkingDelay = lognormal(30min, 9min)

[Config ResponseMeasurement]
repeat = 150
sim-time-limit = 50d
warmup-period = 1.62d
SimNetwork.a.runway.throughputCheckInterval = 42.857min
SimNetwork.wg.interArrivalTime = exponential(42.857min)
SimNetwork.a.runway.landingTime = lognormal(15min, 2.25min)
SimNetwork.a.runway.takeoffTime = lognormal(15min, 2.25min)
SimNetwork.a.parkingLot.parkingDelay = lognormal(30min, 9min)
