include ./../../../../general.ini

[Config WarmupMeasurement]
repeat = 30
sim-time-limit = 25d
SimNetwork.a.runway.throughputCheckInterval = 42.857min
SimNetwork.wg.interArrivalTime = exponential(42.857min)
SimNetwork.a.runway.landingTime = lognormal(2.7031, 0.0998)*1min
SimNetwork.a.runway.takeoffTime = lognormal(2.7031, 0.0998)*1min
SimNetwork.a.parkingLot.parkingDelay = lognormal(3.3962, 0.0998)*1min

[Config ResponseMeasurement]
repeat = 150
sim-time-limit = 25d
warmup-period = 1.2d
SimNetwork.a.runway.throughputCheckInterval = 42.857min
SimNetwork.wg.interArrivalTime = exponential(42.857min)
SimNetwork.a.runway.landingTime = lognormal(2.7031, 0.0998)*1min
SimNetwork.a.runway.takeoffTime = lognormal(2.7031, 0.0998)*1min
SimNetwork.a.parkingLot.parkingDelay = lognormal(3.3962, 0.0998)*1min
