include ./../../../../general.ini

[Config WarmupMeasurement]
repeat = 30
sim-time-limit = 5d
SimNetwork.a.runway.throughputCheckInterval = 28.571min
SimNetwork.wg.interArrivalTime = 28.571min
SimNetwork.a.runway.landingTime = 15min
SimNetwork.a.runway.takeoffTime = 5min
SimNetwork.a.parkingLot.parkingDelay = 60min

[Config ParkingMeasurement]
repeat = 150
sim-time-limit = 14d
warmup-period = 3.5d
SimNetwork.a.runway.throughputCheckInterval = 28.571min
SimNetwork.wg.interArrivalTime = 28.571min
SimNetwork.a.runway.landingTime = 15min
SimNetwork.a.runway.takeoffTime = 5min
SimNetwork.a.parkingLot.parkingDelay = 60min
