include ./../../../general.ini

[Config WarmupMeasurement]
repeat = 30
sim-time-limit = 5d
SimNetwork.a.runway.throughputCheckInterval = 50min
SimNetwork.wg.interArrivalTime = 50min
SimNetwork.a.runway.landingTime = 5min
SimNetwork.a.runway.takeoffTime = 5min
SimNetwork.a.parkingLot.parkingDelay = 45min

[Config QueueMeasurement]
repeat = 70
sim-time-limit = 12d
warmup-period = 1.8d
SimNetwork.a.runway.throughputCheckInterval = 50min
SimNetwork.wg.interArrivalTime = 50min
SimNetwork.a.runway.landingTime = 5min
SimNetwork.a.runway.takeoffTime = 5min
SimNetwork.a.parkingLot.parkingDelay = 45min