include ./../../../../general.ini

[Config WarmupMeasurement]
repeat = 30
sim-time-limit = 5d
SimNetwork.a.runway.throughputCheckInterval = 50min
SimNetwork.wg.interArrivalTime = exponential(50min)
SimNetwork.a.runway.landingTime = truncnormal(5min, 0.5min)
SimNetwork.a.runway.takeoffTime = truncnormal(5min, 0.5min)
SimNetwork.a.parkingLot.parkingDelay = truncnormal(60min, 6min)

[Config ResponseMeasurement]
repeat = 150
sim-time-limit =
warmup-period =
SimNetwork.a.runway.throughputCheckInterval = 50min
SimNetwork.wg.interArrivalTime = exponential(50min)
SimNetwork.a.runway.landingTime = truncnormal(5min, 0.5min)
SimNetwork.a.runway.takeoffTime = truncnormal(5min, 0.5min)
SimNetwork.a.parkingLot.parkingDelay = truncnormal(60min, 6min)
