include ./../../../general.ini

[Config WarmupMeasurement]
repeat = 30
sim-time-limit = 25d
SimNetwork.a.runway.throughputCheckInterval = 14.256min
SimNetwork.wg.interArrivalTime = exponential(14.256min)
SimNetwork.a.runway.landingTime = lognormal(1.6045, 0.0998)*1min
SimNetwork.a.runway.takeoffTime = lognormal(1.6045, 0.0998)*1min
SimNetwork.a.parkingLot.parkingDelay = lognormal(3.8017, 0.0998)*1min

[Config QueueMeasurement]
repeat = 150
sim-time-limit = 25d
warmup-period = 10h
SimNetwork.a.runway.throughputCheckInterval = 14.256min
SimNetwork.wg.interArrivalTime = exponential(14.256min)
SimNetwork.a.runway.landingTime = lognormal(1.6045, 0.0998)*1min
SimNetwork.a.runway.takeoffTime = lognormal(1.6045, 0.0998)*1min
SimNetwork.a.parkingLot.parkingDelay = lognormal(3.8017, 0.0998)*1min
