[General]
network = PriorityValidationTest
cpu-time-limit = 60s
sim-time-limit = 5d

[Config Sim1]
PriorityValidationTest.landingWG.interArrivalTime = 10min
PriorityValidationTest.takeoffWG.interArrivalTime = 10min
PriorityValidationTest.runway.landingTime = 10min
PriorityValidationTest.runway.takeoffTime = 10min

PriorityValidationTest.landingQueue.updatesPriority = 2
PriorityValidationTest.takeoffQueue.updatesPriority = 1