[General]
network = SimNetwork
cpu-time-limit = 60s
seed-set = ${repetition}
**.a.runway.throughputCheckInterval = 20min

[Config Sim1]
SimNetwork.wg.interArrivalTime = uniform(2min, 10min)
SimNetwork.a.runway.landingTime = uniform(2min,10min)
SimNetwork.a.runway.takeoffTime = uniform(2min,10min)
SimNetwork.a.parkingLot.parkingDelay = uniform(0h,2h)

[Config ValidazionePriorita]
**.wg.interArrivalTime = 10min
**.a.runway.landingTime = 10min
**.a.runway.takeoffTime = 10min
**.a.parkingLot.parkingDelay = 10min

[Config WarmupMeasurement]
repeat = 30
sim-time-limit = 5d
**.wg.interArrivalTime = exponential(15min)
**.a.runway.landingTime = exponential(5min)
**.a.runway.takeoffTime = exponential(5min)
**.a.parkingLot.parkingDelay = exponential(1h)

[Config QTValidation]
repeat = 70
sim-time-limit = 5d
**.wg.interArrivalTime = exponential(15min)
**.a.runway.landingTime = exponential(5min)
**.a.runway.takeoffTime = exponential(5min)
**.a.parkingLot.parkingDelay = exponential(1h)
warmup-period = 50000s