[General]
network = SimNetwork
cpu-time-limit = 60s
sim-time-limit = 5d

[Config Sim1]
SimNetwork.wg.interArrivalTime = uniform(2min, 10min)
SimNetwork.a.runway.landingTime = uniform(2min,10min)
SimNetwork.a.runway.takeoffTime = uniform(2min,10min)
SimNetwork.a.parkingLot.parkingDelay = uniform(0h,2h)