[General]
network = SimNetwork
cpu-time-limit = 60s
sim-time-limit = 3000s
