[General]
network = SimNetwork
cpu-time-limit = 60s
sim-time-limit = 5d
repeat = 10
seed-set = ${repetition}

[Config Sim1]
SimNetwork.wg.interArrivalTime = uniform(2min, 10min)
SimNetwork.a.runway.landingTime = uniform(2min,10min)
SimNetwork.a.runway.takeoffTime = uniform(2min,10min)
SimNetwork.a.parkingLot.parkingDelay = uniform(0h,2h)

[Config ValidazionePriorita]
**.wg.interArrivalTime = 10min
**.a.runway.landingTime = 10min
**.a.runway.takeoffTime = 10min
**.a.parkingLot.parkingDelay = 10min