include ./../../../general.ini

[Config WarmupMeasurement]
repeat = 30
sim-time-limit = 50d
SimNetwork.a.runway.throughputCheckInterval = 16.667min
SimNetwork.wg.interArrivalTime = exponential(16.667min)
SimNetwork.a.runway.landingTime = exponential(5min)
SimNetwork.a.runway.takeoffTime = exponential(5min)
SimNetwork.a.parkingLot.parkingDelay = exponential(45min)

[Config QueueMeasurement]
repeat = 150
sim-time-limit = 50d
warmup-period = 20h
SimNetwork.a.runway.throughputCheckInterval = 16.667min
SimNetwork.wg.interArrivalTime = exponential(16.667min)
SimNetwork.a.runway.landingTime = exponential(5min)
SimNetwork.a.runway.takeoffTime = exponential(5min)
SimNetwork.a.parkingLot.parkingDelay = exponential(45min)
