include ./../../../general.ini

[Config WarmupMeasurement]
repeat = 30
sim-time-limit = 25d
SimNetwork.a.runway.throughputCheckInterval = 22.222min
SimNetwork.wg.interArrivalTime = exponential(22.222min)
SimNetwork.a.runway.landingTime = exponential(5min)
SimNetwork.a.runway.takeoffTime = exponential(5min)
SimNetwork.a.parkingLot.parkingDelay = exponential(45min)

[Config QueueMeasurement]
repeat = 150
sim-time-limit = 25d
warmup-period = 1.4d
SimNetwork.a.runway.throughputCheckInterval = 22.222min
SimNetwork.wg.interArrivalTime = exponential(22.222min)
SimNetwork.a.runway.landingTime = exponential(5min)
SimNetwork.a.runway.takeoffTime = exponential(5min)
SimNetwork.a.parkingLot.parkingDelay = exponential(45min)
