include ./../../../general.ini

[Config WarmupMeasurement]
repeat = 30
sim-time-limit = 50d
SimNetwork.a.runway.throughputCheckInterval = 11.111min
SimNetwork.wg.interArrivalTime = exponential(11.111min)
SimNetwork.a.runway.landingTime = lognormal(5min, 0.25min)
SimNetwork.a.runway.takeoffTime = lognormal(5min, 0.25min)
SimNetwork.a.parkingLot.parkingDelay = lognormal(45min, 25min)

[Config QueueMeasurement]
repeat = 150
sim-time-limit = 50d
warmup-period = 14h
SimNetwork.a.runway.throughputCheckInterval = 11.111min
SimNetwork.wg.interArrivalTime = exponential(11.111min)
SimNetwork.a.runway.landingTime = lognormal(5min, 0.25min)
SimNetwork.a.runway.takeoffTime = lognormal(5min, 0.25min)
SimNetwork.a.parkingLot.parkingDelay = lognormal(45min, 25min)
